**********************************
**********************************
**
** Littelfuse, LP
** TVS Diode SPICE Models
** 30KPAxxxA
**
** T. Chenoski
** Irving Technical Center
**
** A 06/08/08
**
**********************************
**********************************
.SUBCKT 30KPA28A   1  2
*       TERMINALS: A  K
Done    1          3  Dtvs
Dtwo    3          4  Dtvs
Dthr    4          5  Dtvs
Dfou    5          2  Dtvs
Rleak   1          2  0.011meg
.MODEL  Dtvs       D  (IS=1.0e-5 RS=0.0054 N=1.5 IBV=10m BV=8.60 CJO=4000p)
.ENDS

.SUBCKT 30KPA30A   1  2
*       TERMINALS: A  K
Done    1          3  Dtvs
Dtwo    3          4  Dtvs
Dthr    4          5  Dtvs
Dfou    5          2  Dtvs
Rleak   1          2  0.012meg
.MODEL  Dtvs       D  (IS=1.0e-5 RS=0.0071 N=1.5 IBV=10m BV=9.22 CJO=4000p)
.ENDS

.SUBCKT 30KPA33A   1  2
*       TERMINALS: A  K
Done    1          3  Dtvs
Dtwo    3          4  Dtvs
Dthr    4          5  Dtvs
Dfou    5          2  Dtvs
Rleak   1          2  0.013meg
.MODEL  Dtvs       D  (IS=1.0e-5 RS=0.0072 N=1.5 IBV=10m BV=10.15 CJO=4000p)
.ENDS

.SUBCKT 30KPA36A   1  2
*       TERMINALS: A  K
Done    1          3  Dtvs
Dtwo    3          4  Dtvs
Dthr    4          5  Dtvs
Dfou    5          2  Dtvs
Rleak   1          2  0.014meg
.MODEL  Dtvs       D  (IS=1.0e-5 RS=0.0074 N=1.5 IBV=10m BV=11.06 CJO=4000p)
.ENDS

.SUBCKT 30KPA39A   1  2
*       TERMINALS: A  K
Done    1          3  Dtvs
Dtwo    3          4  Dtvs
Dthr    4          5  Dtvs
Dfou    5          2  Dtvs
Rleak   1          2  0.039meg
.MODEL  Dtvs       D  (IS=1.0e-5 RS=0.0088 N=1.5 IBV=10m BV=11.99 CJO=4000p)
.ENDS

.SUBCKT 30KPA42A   1  2
*       TERMINALS: A  K
Done    1          3  Dtvs
Dtwo    3          4  Dtvs
Dthr    4          5  Dtvs
Dfou    5          2  Dtvs
Rleak   1          2  0.084meg
.MODEL  Dtvs       D  (IS=1.0e-5 RS=0.0100 N=1.5 IBV=10m BV=12.90 CJO=4000p)
.ENDS

.SUBCKT 30KPA43A   1  2
*       TERMINALS: A  K
Done    1          3  Dtvs
Dtwo    3          4  Dtvs
Dthr    4          5  Dtvs
Dfou    5          2  Dtvs
Rleak   1          2  0.086meg
.MODEL  Dtvs       D  (IS=1.0e-5 RS=0.0100 N=1.5 IBV=10m BV=13.20 CJO=4000p)
.ENDS

.SUBCKT 30KPA45A   1  2
*       TERMINALS: A  K
Done    1          3  Dtvs
Dtwo    3          4  Dtvs
Dthr    4          5  Dtvs
Dfou    5          2  Dtvs
Rleak   1          2  0.360meg
.MODEL  Dtvs       D  (IS=1.0e-5 RS=0.0156 N=1.5 IBV=10m BV=13.83 CJO=4000p)
.ENDS

.SUBCKT 30KPA48A   1  2
*       TERMINALS: A  K
Done    1          3  Dtvs
Dtwo    3          4  Dtvs
Dthr    4          5  Dtvs
Dfou    5          2  Dtvs
Rleak   1          2  0.640meg
.MODEL  Dtvs       D  (IS=1.0e-5 RS=0.0125 N=1.5 IBV=10m BV=14.74 CJO=4000p)
.ENDS

.SUBCKT 30KPA51A   1  2
*       TERMINALS: A  K
Done    1          3  Dtvs
Dtwo    3          4  Dtvs
Dthr    4          5  Dtvs
Dfou    5          2  Dtvs
Rleak   1          2  2.040meg
.MODEL  Dtvs       D  (IS=1.0e-5 RS=0.0138 N=1.5 IBV=10m BV=15.68 CJO=4000p)
.ENDS

.SUBCKT 30KPA54A   1  2
*       TERMINALS: A  K
Done    1          3  Dtvs
Dtwo    3          4  Dtvs
Dthr    4          5  Dtvs
Dfou    5          6  Dtvs
Dfiv    6          7  Dtvs
Dsix    7          2  Dtvs
Rleak   1          2  5.4meg
.MODEL  Dtvs       D  (IS=1.0e-5 RS=0.0103 N=1.5 IBV=10m BV=11.06 CJO=4000p)
.ENDS

.SUBCKT 30KPA58A   1  2
*       TERMINALS: A  K
Done    1          3  Dtvs
Dtwo    3          4  Dtvs
Dthr    4          5  Dtvs
Dfou    5          6  Dtvs
Dfiv    6          7  Dtvs
Dsix    7          2  Dtvs
Rleak   1          2  5.8meg
.MODEL  Dtvs       D  (IS=1.0e-5 RS=0.0084 N=1.5 IBV=10m BV=11.88 CJO=4000p)
.ENDS

.SUBCKT 30KPA60A   1  2
*       TERMINALS: A  K
Done    1          3  Dtvs
Dtwo    3          4  Dtvs
Dthr    4          5  Dtvs
Dfou    5          6  Dtvs
Dfiv    6          7  Dtvs
Dsix    7          2  Dtvs
Rleak   1          2  8.0meg
.MODEL  Dtvs       D  (IS=1.0e-5 RS=0.0130 N=1.5 IBV=10m BV=12.28 CJO=4000p)
.ENDS

.SUBCKT 30KPA64A   1  2
*       TERMINALS: A  K
Done    1          3  Dtvs
Dtwo    3          4  Dtvs
Dthr    4          5  Dtvs
Dfou    5          6  Dtvs
Dfiv    6          7  Dtvs
Dsix    7          2  Dtvs
Rleak   1          2  12.8meg
.MODEL  Dtvs       D  (IS=1.0e-5 RS=0.0115 N=1.5 IBV=10m BV=13.11 CJO=4000p)
.ENDS

.SUBCKT 30KPA66A   1  2
*       TERMINALS: A  K
Done    1          3  Dtvs
Dtwo    3          4  Dtvs
Dthr    4          5  Dtvs
Dfou    5          6  Dtvs
Dfiv    6          7  Dtvs
Dsix    7          2  Dtvs
Rleak   1          2  66.0meg
.MODEL  Dtvs       D  (IS=1.0e-5 RS=0.0121 N=1.5 IBV=10m BV=13.51 CJO=4000p)
.ENDS

.SUBCKT 30KPA70A   1  2
*       TERMINALS: A  K
Done    1          3  Dtvs
Dtwo    3          4  Dtvs
Dthr    4          5  Dtvs
Dfou    5          6  Dtvs
Dfiv    6          7  Dtvs
Dsix    7          2  Dtvs
Rleak   1          2  70.0meg
.MODEL  Dtvs       D  (IS=1.0e-5 RS=0.0105 N=1.5 IBV=10m BV=14.34 CJO=4000p)
.ENDS

.SUBCKT 30KPA71A   1  2
*       TERMINALS: A  K
Done    1          3  Dtvs
Dtwo    3          4  Dtvs
Dthr    4          5  Dtvs
Dfou    5          6  Dtvs
Dfiv    6          7  Dtvs
Dsix    7          2  Dtvs
Rleak   1          2  71.0meg
.MODEL  Dtvs       D  (IS=1.0e-5 RS=0.0115 N=1.5 IBV=10m BV=14.54 CJO=4000p)
.ENDS

.SUBCKT 30KPA72A   1  2
*       TERMINALS: A  K
Done    1          3  Dtvs
Dtwo    3          4  Dtvs
Dthr    4          5  Dtvs
Dfou    5          6  Dtvs
Dfiv    6          7  Dtvs
Dsix    7          2  Dtvs
Rleak   1          2  72.0meg
.MODEL  Dtvs       D  (IS=1.0e-5 RS=0.0125 N=1.5 IBV=10m BV=14.74 CJO=4000p)
.ENDS

.SUBCKT 30KPA75A   1  2
*       TERMINALS: A  K
Done    1          3  Dtvs
Dtwo    3          4  Dtvs
Dthr    4          5  Dtvs
Dfou    5          6  Dtvs
Dfiv    6          7  Dtvs
Dsix    7          2  Dtvs
Rleak   1          2  75.0meg
.MODEL  Dtvs       D  (IS=1.0e-5 RS=0.0140 N=1.5 IBV=10m BV=15.36 CJO=4000p)
.ENDS

.SUBCKT 30KPA78A   1  2
*       TERMINALS: A  K
Done    1          3  Dtvs
Dtwo    3          4  Dtvs
Dthr    4          5  Dtvs
Dfou    5          6  Dtvs
Dfiv    6          7  Dtvs
Dsix    7          2  Dtvs
Rleak   1          2  78.0meg
.MODEL  Dtvs       D  (IS=1.0e-5 RS=0.0190 N=1.5 IBV=10m BV=15.97 CJO=4000p)
.ENDS

.SUBCKT 30KPA84A   1  2
*       TERMINALS: A  K
Done    1          3  Dtvs
Dtwo    3          4  Dtvs
Dthr    4          5  Dtvs
Dfou    5          6  Dtvs
Dfiv    6          7  Dtvs
Dsix    7          2  Dtvs
Rleak   1          2  84.0meg
.MODEL  Dtvs       D  (IS=1.0e-5 RS=0.0222 N=1.5 IBV=10m BV=17.20 CJO=4000p)
.ENDS

.SUBCKT 30KPA90A   1  2
*       TERMINALS: A  K
Done    1          3  Dtvs
Dtwo    3          4  Dtvs
Dthr    4          5  Dtvs
Dfou    5          6  Dtvs
Dfiv    6          7  Dtvs
Dsix    7          2  Dtvs
Rleak   1          2  90.0meg
.MODEL  Dtvs       D  (IS=1.0e-5 RS=0.0230 N=1.5 IBV=10m BV=18.43 CJO=4000p)
.ENDS

.SUBCKT 30KPA96A   1  2
*       TERMINALS: A  K
Done    1          3  Dtvs
Dtwo    3          4  Dtvs
Dthr    4          5  Dtvs
Dfou    5          6  Dtvs
Dfiv    6          7  Dtvs
Dsix    7          2  Dtvs
Rleak   1          2  96.0meg
.MODEL  Dtvs       D  (IS=1.0e-5 RS=0.0260 N=1.5 IBV=10m BV=19.65 CJO=4000p)
.ENDS

.SUBCKT 30KPA102A  1  2
*       TERMINALS: A  K
Done    1          3  Dtvs
Dtwo    3          4  Dtvs
Dthr    4          5  Dtvs
Dfou    5          6  Dtvs
Dfiv    6          7  Dtvs
Dsix    7          2  Dtvs
Rleak   1          2  102.0meg
.MODEL  Dtvs       D  (IS=1.0e-5 RS=0.0292 N=1.5 IBV=10m BV=20.88 CJO=4000p)
.ENDS

.SUBCKT 30KPA108A  1  2
*       TERMINALS: A  K
Done    1          3  Dtvs
Dtwo    3          4  Dtvs
Dthr    4          5  Dtvs
Dfou    5          6  Dtvs
Dfiv    6          7  Dtvs
Dsix    7          2  Dtvs
Rleak   1          2  108.0meg
.MODEL  Dtvs       D  (IS=1.0e-5 RS=0.0326 N=1.5 IBV=10m BV=22.11 CJO=4000p)
.ENDS

.SUBCKT 30KPA120A  1  2
*       TERMINALS: A  K
Done    1          3  Dtvs
Dtwo    3          4  Dtvs
Dthr    4          5  Dtvs
Dfou    5          6  Dtvs
Dfiv    6          7  Dtvs
Dsix    7          2  Dtvs
Rleak   1          2  120.0meg
.MODEL  Dtvs       D  (IS=1.0e-5 RS=0.0399 N=1.5 IBV=10m BV=24.57 CJO=4000p)
.ENDS

.SUBCKT 30KPA132A  1  2
*       TERMINALS: A  K
Done    1          3  Dtvs
Dtwo    3          4  Dtvs
Dthr    4          5  Dtvs
Dfou    5          6  Dtvs
Dfiv    6          7  Dtvs
Dsix    7          2  Dtvs
Rleak   1          2  132.0meg
.MODEL  Dtvs       D  (IS=1.0e-5 RS=0.0471 N=1.5 IBV=10m BV=27.02 CJO=4000p)
.ENDS

.SUBCKT 30KPA144A  1  2
*       TERMINALS: A  K
Done    1          3  Dtvs
Dtwo    3          4  Dtvs
Dthr    4          5  Dtvs
Dfou    5          6  Dtvs
Dfiv    6          7  Dtvs
Dsix    7          2  Dtvs
Rleak   1          2  144.0meg
.MODEL  Dtvs       D  (IS=1.0e-5 RS=0.0432 N=1.5 IBV=10m BV=29.48 CJO=4000p)
.ENDS

.SUBCKT 30KPA150A  1  2
*       TERMINALS: A  K
Done    1          3  Dtvs
Dtwo    3          4  Dtvs
Dthr    4          5  Dtvs
Dfou    5          6  Dtvs
Dfiv    6          7  Dtvs
Dsix    7          2  Dtvs
Rleak   1          2  150.0meg
.MODEL  Dtvs       D  (IS=1.0e-5 RS=0.0480 N=1.5 IBV=10m BV=30.73 CJO=4000p)
.ENDS

.SUBCKT 30KPA156A  1  2
*       TERMINALS: A  K
Done    1          3  Dtvs
Dtwo    3          4  Dtvs
Dthr    4          5  Dtvs
Dfou    5          6  Dtvs
Dfiv    6          7  Dtvs
Dsix    7          2  Dtvs
Rleak   1          2  156.0meg
.MODEL  Dtvs       D  (IS=1.0e-5 RS=0.0553 N=1.5 IBV=10m BV=31.96 CJO=4000p)
.ENDS

.SUBCKT 30KPA160A  1  2
*       TERMINALS: A  K
Done    1          3  Dtvs
Dtwo    3          4  Dtvs
Dthr    4          5  Dtvs
Dfou    5          6  Dtvs
Dfiv    6          7  Dtvs
Dsix    7          2  Dtvs
Rleak   1          2  160.0meg
.MODEL  Dtvs       D  (IS=1.0e-5 RS=0.0603 N=1.5 IBV=10m BV=32.76 CJO=4000p)
.ENDS

.SUBCKT 30KPA168A  1  2
*       TERMINALS: A  K
Done    1          3  Dtvs
Dtwo    3          4  Dtvs
Dthr    4          5  Dtvs
Dfou    5          6  Dtvs
Dfiv    6          7  Dtvs
Dsix    7          2  Dtvs
Rleak   1          2  168.0meg
.MODEL  Dtvs       D  (IS=1.0e-5 RS=0.0784 N=1.5 IBV=10m BV=34.41 CJO=4000p)
.ENDS

.SUBCKT 30KPA170A  1  2
*       TERMINALS: A  K
Done    1          3  Dtvs
Dtwo    3          4  Dtvs
Dthr    4          5  Dtvs
Dfou    5          6  Dtvs
Dfiv    6          7  Dtvs
Dsix    7          2  Dtvs
Rleak   1          2  170.0meg
.MODEL  Dtvs       D  (IS=1.0e-5 RS=0.0792 N=1.5 IBV=10m BV=34.82 CJO=4000p)
.ENDS

.SUBCKT 30KPA180A  1  2
*       TERMINALS: A  K
Done    1          3  Dtvs
Dtwo    3          4  Dtvs
Dthr    4          5  Dtvs
Dfou    5          6  Dtvs
Dfiv    6          7  Dtvs
Dsix    7          2  Dtvs
Rleak   1          2  180.0meg
.MODEL  Dtvs       D  (IS=1.0e-5 RS=0.0874 N=1.5 IBV=10m BV=36.87 CJO=4000p)
.ENDS

.SUBCKT 30KPA198A  1  2
*       TERMINALS: A  K
Done    1          3  Dtvs
Dtwo    3          4  Dtvs
Dthr    4          5  Dtvs
Dfou    5          6  Dtvs
Dfiv    6          7  Dtvs
Dsix    7          2  Dtvs
Rleak   1          2  198.0meg
.MODEL  Dtvs       D  (IS=1.0e-5 RS=0.1065 N=1.5 IBV=10m BV=40.55 CJO=4000p)
.ENDS

.SUBCKT 30KPA216A  1  2
*       TERMINALS: A  K
Done    1          3  Dtvs
Dtwo    3          4  Dtvs
Dthr    4          5  Dtvs
Dfou    5          6  Dtvs
Dfiv    6          7  Dtvs
Dsix    7          2  Dtvs
Rleak   1          2  216.0meg
.MODEL  Dtvs       D  (IS=1.0e-5 RS=0.1261 N=1.5 IBV=10m BV=44.24 CJO=4000p)
.ENDS

.SUBCKT 30KPA240A  1  2
*       TERMINALS: A  K
Done    1          3  Dtvs
Dtwo    3          4  Dtvs
Dthr    4          5  Dtvs
Dfou    5          6  Dtvs
Dfiv    6          7  Dtvs
Dsix    7          2  Dtvs
Rleak   1          2  240.0meg
.MODEL  Dtvs       D  (IS=1.0e-5 RS=0.1548 N=1.5 IBV=10m BV=49.15 CJO=4000p)
.ENDS

.SUBCKT 30KPA258A  1  2
*       TERMINALS: A  K
Done    1          3  Dtvs
Dtwo    3          4  Dtvs
Dthr    4          5  Dtvs
Dfou    5          6  Dtvs
Dfiv    6          7  Dtvs
Dsix    7          2  Dtvs
Rleak   1          2  258.0meg
.MODEL  Dtvs       D  (IS=1.0e-5 RS=0.1799 N=1.5 IBV=10m BV=52.84 CJO=4000p)
.ENDS

.SUBCKT 30KPA260A  1  2
*       TERMINALS: A  K
Done    1          3  Dtvs
Dtwo    3          4  Dtvs
Dthr    4          5  Dtvs
Dfou    5          6  Dtvs
Dfiv    6          7  Dtvs
Dsix    7          2  Dtvs
Rleak   1          2  260.0meg
.MODEL  Dtvs       D  (IS=1.0e-5 RS=0.1734 N=1.5 IBV=10m BV=53.24 CJO=4000p)
.ENDS

.SUBCKT 30KPA270A  1  2
*       TERMINALS: A  K
Done    1          3  Dtvs
Dtwo    3          4  Dtvs
Dthr    4          5  Dtvs
Dfou    5          6  Dtvs
Dfiv    6          7  Dtvs
Dsix    7          2  Dtvs
Rleak   1          2  270.0meg
.MODEL  Dtvs       D  (IS=1.0e-5 RS=0.1982 N=1.5 IBV=10m BV=55.29 CJO=4000p)
.ENDS

.SUBCKT 30KPA280A  1  2
*       TERMINALS: A  K
Done    1          3  Dtvs
Dtwo    3          4  Dtvs
Dthr    4          5  Dtvs
Dfou    5          6  Dtvs
Dfiv    6          7  Dtvs
Dsix    7          2  Dtvs
Rleak   1          2  280.0meg
.MODEL  Dtvs       D  (IS=1.0e-5 RS=0.2469 N=1.5 IBV=10m BV=57.35 CJO=4000p)
.ENDS

.SUBCKT 30KPA288A  1  2
*       TERMINALS: A  K
Done    1          3  Dtvs
Dtwo    3          4  Dtvs
Dthr    4          5  Dtvs
Dfou    5          6  Dtvs
Dfiv    6          7  Dtvs
Dsix    7          2  Dtvs
Rleak   1          2  288.0meg
.MODEL  Dtvs       D  (IS=1.0e-5 RS=0.2391 N=1.5 IBV=10m BV=58.98 CJO=4000p)
.ENDS